<configuration>
    <input>
        <net-file value="basic_intersection.net.xml"/>
        <route-files value="basic_routes.rou.xml"/>
    </input>
    <time>
        <begin value="0"/>
        <end value="1000"/>
    </time>
    <gui_only>
        <gui-settings-file value="gui_settings.xml"/>
    </gui_only>
</configuration>