<net version="1.19" xmlns:xsi="http://www.w3.org/2001/XMLSchema-instance" xsi:noNamespaceSchemaLocation="http://sumo.dlr.de/xsd/net_file.xsd">

    <nodes>
        <node id="n1" x="0" y="-100" type="traffic_light"/>
        <node id="n2" x="0" y="100" type="traffic_light"/>
        <node id="n3" x="-100" y="0" type="traffic_light"/>
        <node id="n4" x="100" y="0" type="traffic_light"/>
        <node id="J" x="0" y="0" type="traffic_light"/>
    </nodes>

    <edges>
        <edge id="e1" from="n1" to="J" priority="1">
            <lane id="e1_0" index="0" speed="13.89" length="100.0"/>
            <lane id="e1_1" index="1" speed="13.89" length="100.0"/>
        </edge>
        <edge id="e2" from="J" to="n2" priority="1">
            <lane id="e2_0" index="0" speed="13.89" length="100.0"/>
            <lane id="e2_1" index="1" speed="13.89" length="100.0"/>
        </edge>
        <edge id="e3" from="n3" to="J" priority="1">
            <lane id="e3_0" index="0" speed="13.89" length="100.0"/>
            <lane id="e3_1" index="1" speed="13.89" length="100.0"/>
        </edge>
        <edge id="e4" from="J" to="n4" priority="1">
            <lane id="e4_0" index="0" speed="13.89" length="100.0"/>
            <lane id="e4_1" index="1" speed="13.89" length="100.0"/>
        </edge>
        <edge id="e5" from="n4" to="J" priority="1">
            <lane id="e5_0" index="0" speed="13.89" length="100.0"/>
            <lane id="e5_1" index="1" speed="13.89" length="100.0"/>
        </edge>
        <edge id="e6" from="J" to="n3" priority="1">
            <lane id="e6_0" index="0" speed="13.89" length="100.0"/>
            <lane id="e6_1" index="1" speed="13.89" length="100.0"/>
        </edge>
        <edge id="e7" from="n2" to="J" priority="1">
            <lane id="e7_0" index="0" speed="13.89" length="100.0"/>
            <lane id="e7_1" index="1" speed="13.89" length="100.0"/>
        </edge>
        <edge id="e8" from="J" to="n1" priority="1">
            <lane id="e8_0" index="0" speed="13.89" length="100.0"/>
            <lane id="e8_1" index="1" speed="13.89" length="100.0"/>
        </edge>
    </edges>

    <tlcs>
        <tlc id="J" type="actuated" programID="0" offset="0">
            <phase duration="30" state="GGrrGGrr"/>
            <phase duration="3" state="yyrryyrr"/>
            <phase duration="30" state="rrGGrrGG"/>
            <phase duration="3" state="rryyrryy"/>
        </tlc>
    </tlcs>

</net>